Version 4
SHEET 1 880 680
WIRE 176 -16 -144 -16
WIRE 336 -16 176 -16
WIRE 176 16 176 -16
WIRE 336 80 336 64
WIRE -144 112 -144 -16
WIRE 176 128 176 96
WIRE 192 128 176 128
WIRE 32 176 -32 176
WIRE 336 192 336 176
WIRE 176 240 176 224
WIRE -144 256 -144 192
WIRE -96 256 -144 256
WIRE -32 256 -96 256
WIRE 336 272 272 272
WIRE -96 320 -96 256
WIRE 272 320 272 272
WIRE 272 320 176 320
WIRE 272 352 272 320
FLAG 272 352 0
FLAG -96 320 0
SYMBOL npn 112 128 R0
SYMATTR InstName Q1
SYMATTR Value BC547B
SYMBOL res 160 0 R0
SYMATTR InstName R1
SYMATTR Value 100k
SYMBOL res 320 -32 R0
SYMATTR InstName R2
SYMATTR Value 100k
SYMBOL res 288 112 R90
WINDOW 0 0 56 VBottom 2
WINDOW 3 32 56 VTop 2
SYMATTR InstName R3
SYMATTR Value 100k
SYMBOL res 128 160 R90
WINDOW 0 0 56 VBottom 2
WINDOW 3 32 56 VTop 2
SYMATTR InstName R4
SYMATTR Value 100k
SYMBOL res 160 224 R0
SYMATTR InstName R5
SYMATTR Value 100
SYMBOL res 320 176 R0
SYMATTR InstName R6
SYMATTR Value 100
SYMBOL voltage -144 96 R0
WINDOW 123 0 0 Left 0
WINDOW 39 0 0 Left 0
SYMATTR InstName V1
SYMATTR Value 5
SYMBOL voltage -32 160 R0
WINDOW 3 -324 121 Left 2
WINDOW 123 0 0 Left 0
WINDOW 39 0 0 Left 0
SYMATTR InstName V2
SYMATTR Value PULSE(0 3.3 0 1e-9 1e-9 0.001 0.002 25)
SYMBOL npn 272 80 R0
SYMATTR InstName Q2
SYMATTR Value BC547B
TEXT -178 376 Left 2 !.tran 0 0.05 0 startup
